resp2dc.json
{"ac_circuit_breaker_flows":[],"ac_switch_flows":[],"attribution_coverage":{"approximate":0,"attributed_components":40,"audit_only":6,"rich_components":40,"strong":34,"total":true,"unsupported":0},"attribution_diagnostics":[],"branch_abs":[1409.9999999996132,1049.999999999999,1049.999999999999,1049.999999999999,1500.0000000000007,1100.0000000000005,550.0000000000002,1073.9447608139326,1999.9999999999363,704.9999999998923,704.9999999998923,337.0192194004451,337.0192194004451],"component_results":[{"canonical_sources":[],"canvas_index":1,"canvas_type":"ac_bus","connection":"AC Bus 1","domain":"AC","in_service":true,"index":1,"metrics":[{"label":"类型","quantity":"text","value":"PQ"},{"label":"Vm","precision":6,"quantity":"scalar","unit":"pu","value":0.6975608516288939},{"label":"Va","precision":4,"quantity":"scalar","unit":"deg","value":10.110778614880784},{"label":"P净注入","precision":4,"quantity":"p","unit":"MW","value":1410.0},{"label":"Q净注入","precision":4,"quantity":"q","unit":"MVar","value":-705.0}],"name":"INVERTER","notes":["净注入=该母线所有设备净注入(电源/外网/变换器为正，负荷为负)，等于经支路外送的净有功/无功"],"position":0,"recovery_class":"strong","recovery_reason":"BusMergeMap voltage broadcast","status":"已求解","terminals":[],"type_label":"交流母线"},{"canonical_sources":[],"canvas_index":2,"canvas_type":"ac_bus","connection":"AC Bus 2","domain":"AC","in_service":true,"index":2,"metrics":[{"label":"类型","quantity":"text","value":"PQ"},{"label":"Vm","precision":6,"quantity":"scalar","unit":"pu","value":0.9795257855562021},{"label":"Va","precision":4,"quantity":"scalar","unit":"deg","value":8.259892539007604},{"label":"P净注入","precision":4,"quantity":"p","unit":"MW","value":-1500.0},{"label":"Q净注入","precision":4,"quantity":"q","unit":"MVar","value":-750.0}],"name":"RECTFIER","notes":["净注入=该母线所有设备净注入(电源/外网/变换器为正，负荷为负)，等于经支路外送的净有功/无功"],"position":1,"recovery_class":"strong","recovery_reason":"BusMergeMap voltage broadcast","status":"已求解","terminals":[],"type_label":"交流母线"},{"canonical_sources":[],"canvas_index":3,"canvas_type":"ac_bus","connection":"AC Bus 3","domain":"AC","in_service":true,"index":3,"metrics":[{"label":"类型","quantity":"text","value":"PQ"},{"label":"Vm","precision":6,"quantity":"scalar","unit":"pu","value":1.0510759996488843},{"label":"Va","precision":4,"quantity":"scalar","unit":"deg","value":15.23066367124068},{"label":"P净注入","precision":4,"quantity":"p","unit":"MW","value":0.0},{"label":"Q净注入","precision":4,"quantity":"q","unit":"MVar","value":662.8564542227409}],"name":"NORTH","notes":["净注入=该母线所有设备净注入(电源/外网/变换器为正，负荷为负)，等于经支路外送的净有功/无功"],"position":2,"recovery_class":"strong","recovery_reason":"BusMergeMap voltage broadcast","status":"已求解","terminals":[],"type_label":"交流母线"},{"canonical_sources":[],"canvas_index":4,"canvas_type":"ac_bus","connection":"AC Bus 4","domain":"AC","in_service":true,"index":4,"metrics":[{"label":"类型","quantity":"text","value":"PV"},{"label":"Vm","precision":6,"quantity":"scalar","unit":"pu","value":1.05},{"label":"Va","precision":4,"quantity":"scalar","unit":"deg","value":18.503135470742947},{"label":"P净注入","precision":4,"quantity":"p","unit":"MW","value":1050.0},{"label":"Q净注入","precision":4,"quantity":"q","unit":"MVar","value":11.163749290911529}],"name":"NORTHG1","notes":["净注入=该母线所有设备净注入(电源/外网/变换器为正，负荷为负)，等于经支路外送的净有功/无功"],"position":3,"recovery_class":"strong","recovery_reason":"BusMergeMap voltage broadcast","status":"已求解","terminals":[],"type_label":"交流母线"},{"canonical_sources":[],"canvas_index":5,"canvas_type":"ac_bus","connection":"AC Bus 5","domain":"AC","in_service":true,"index":5,"metrics":[{"label":"类型","quantity":"text","value":"PV"},{"label":"Vm","precision":6,"quantity":"scalar","unit":"pu","value":1.05},{"label":"Va","precision":4,"quantity":"scalar","unit":"deg","value":18.503135470742947},{"label":"P净注入","precision":4,"quantity":"p","unit":"MW","value":1050.0},{"label":"Q净注入","precision":4,"quantity":"q","unit":"MVar","value":11.163749290911529}],"name":"NORTHG2","notes":["净注入=该母线所有设备净注入(电源/外网/变换器为正，负荷为负)，等于经支路外送的净有功/无功"],"position":4,"recovery_class":"strong","recovery_reason":"BusMergeMap voltage broadcast","status":"已求解","terminals":[],"type_label":"交流母线"},{"canonical_sources":[],"canvas_index":6,"canvas_type":"ac_bus","connection":"AC Bus 6","domain":"AC","in_service":true,"index":6,"metrics":[{"label":"类型","quantity":"text","value":"PV"},{"label":"Vm","precision":6,"quantity":"scalar","unit":"pu","value":1.05},{"label":"Va","precision":4,"quantity":"scalar","unit":"deg","value":18.503135470742947},{"label":"P净注入","precision":4,"quantity":"p","unit":"MW","value":1050.0},{"label":"Q净注入","precision":4,"quantity":"q","unit":"MVar","value":11.163749290911529}],"name":"NORTHG3","notes":["净注入=该母线所有设备净注入(电源/外网/变换器为正，负荷为负)，等于经支路外送的净有功/无功"],"position":5,"recovery_class":"strong","recovery_reason":"BusMergeMap voltage broadcast","status":"已求解","terminals":[],"type_label":"交流母线"},{"canonical_sources":[],"canvas_index":7,"canvas_type":"ac_bus","connection":"AC Bus 7","domain":"AC","in_service":true,"index":7,"metrics":[{"label":"类型","quantity":"text","value":"SLACK"},{"label":"Vm","precision":6,"quantity":"scalar","unit":"pu","value":1.05},{"label":"Va","precision":4,"quantity":"scalar","unit":"deg","value":0.0},{"label":"P净注入","precision":4,"quantity":"p","unit":"MW","value":1073.9447608139326},{"label":"Q净注入","precision":4,"quantity":"q","unit":"MVar","value":486.85953255371663}],"name":"SLACK","notes":["净注入=该母线所有设备净注入(电源/外网/变换器为正，负荷为负)，等于经支路外送的净有功/无功"],"position":6,"recovery_class":"strong","recovery_reason":"BusMergeMap voltage broadcast","status":"已求解","terminals":[],"type_label":"交流母线"},{"canonical_sources":[],"canvas_index":8,"canvas_type":"ac_bus","connection":"AC Bus 8","domain":"AC","in_service":true,"index":8,"metrics":[{"label":"类型","quantity":"text","value":"PQ"},{"label":"Vm","precision":6,"quantity":"scalar","unit":"pu","value":0.7996765199602747},{"label":"Va","precision":4,"quantity":"scalar","unit":"deg","value":-2.044160017263134},{"label":"P净注入","precision":4,"quantity":"p","unit":"MW","value":-2000.0},{"label":"Q净注入","precision":4,"quantity":"q","unit":"MVar","value":-194.80879610513728}],"name":"SOUTH","notes":["净注入=该母线所有设备净注入(电源/外网/变换器为正，负荷为负)，等于经支路外送的净有功/无功"],"position":7,"recovery_class":"strong","recovery_reason":"BusMergeMap voltage broadcast","status":"已求解","terminals":[],"type_label":"交流母线"},{"canonical_sources":[],"canvas_index":9,"canvas_type":"ac_bus","connection":"AC Bus 9","domain":"AC","in_service":true,"index":9,"metrics":[{"label":"类型","quantity":"text","value":"PV"},{"label":"Vm","precision":6,"quantity":"scalar","unit":"pu","value":0.8365001687284898},{"label":"Va","precision":4,"quantity":"scalar","unit":"deg","value":1.3840025072712154},{"label":"P净注入","precision":4,"quantity":"p","unit":"MW","value":2000.0},{"label":"Q净注入","precision":4,"quantity":"q","unit":"MVar","value":1599.9999999999623}],"name":"SOUTHG1","notes":["净注入=该母线所有设备净注入(电源/外网/变换器为正，负荷为负)，等于经支路外送的净有功/无功"],"position":8,"recovery_class":"strong","recovery_reason":"BusMergeMap voltage broadcast","status":"已求解","terminals":[],"type_label":"交流母线"},{"canonical_sources":[],"canvas_index":10,"canvas_type":"ac_bus","connection":"AC Bus 10","domain":"AC","in_service":true,"index":10,"metrics":[{"label":"类型","quantity":"text","value":"PQ"},{"label":"Vm","precision":6,"quantity":"scalar","unit":"pu","value":1.0322640341959621},{"label":"Va","precision":4,"quantity":"scalar","unit":"deg","value":-2.2714241390489622},{"label":"P净注入","precision":4,"quantity":"p","unit":"MW","value":-2000.0},{"label":"Q净注入","precision":4,"quantity":"q","unit":"MVar","value":-700.0}],"name":"STATIONN","notes":["净注入=该母线所有设备净注入(电源/外网/变换器为正，负荷为负)，等于经支路外送的净有功/无功"],"position":9,"recovery_class":"strong","recovery_reason":"BusMergeMap voltage broadcast","status":"已求解","terminals":[],"type_label":"交流母线"},{"canonical_sources":[],"canvas_index":11,"canvas_type":"ac_bus","connection":"AC Bus 11","domain":"AC","in_service":true,"index":11,"metrics":[{"label":"类型","quantity":"text","value":"PQ"},{"label":"Vm","precision":6,"quantity":"scalar","unit":"pu","value":0.7659504662933279},{"label":"Va","precision":4,"quantity":"scalar","unit":"deg","value":-15.042940333001262},{"label":"P净注入","precision":4,"quantity":"p","unit":"MW","value":-2000.0},{"label":"Q净注入","precision":4,"quantity":"q","unit":"MVar","value":-1034.6720467259865}],"name":"STATIONS","notes":["净注入=该母线所有设备净注入(电源/外网/变换器为正，负荷为负)，等于经支路外送的净有功/无功"],"position":10,"recovery_class":"strong","recovery_reason":"BusMergeMap voltage broadcast","status":"已求解","terminals":[],"type_label":"交流母线"},{"canonical_sources":[],"canvas_index":1,"canvas_type":"dc_bus","connection":"DC Bus 1","domain":"DC","in_service":true,"index":1,"metrics":[{"label":"类型","quantity":"text","value":"DC_P"},{"label":"Vdc","precision":6,"quantity":"scalar","unit":"pu","value":0.9399999978252032},{"label":"P净注入","precision":4,"quantity":"p","unit":"MW","value":-1410.0}],"name":"INVERTER","notes":["净注入=该母线普通设备净注入(直流源为正、负荷为负、变换器按端口方向)；DC_V母线还可显示平衡源功率，使总注入等于经支路外送的净有功"],"position":0,"recovery_class":"strong","recovery_reason":"stable DC bus identity","status":"已求解","terminals":[],"type_label":"直流母线"},{"canonical_sources":[],"canvas_index":2,"canvas_type":"dc_bus","connection":"DC Bus 2","domain":"DC","in_service":true,"index":2,"metrics":[{"label":"类型","quantity":"text","value":"DC_P"},{"label":"Vdc","precision":6,"quantity":"scalar","unit":"pu","value":0.9999999978435392},{"label":"P净注入","precision":4,"quantity":"p","unit":"MW","value":1500.0}],"name":"RECTFIER","notes":["净注入=该母线普通设备净注入(直流源为正、负荷为负、变换器按端口方向)；DC_V母线还可显示平衡源功率，使总注入等于经支路外送的净有功"],"position":1,"recovery_class":"strong","recovery_reason":"stable DC bus identity","status":"已求解","terminals":[],"type_label":"直流母线"},{"canonical_sources":[],"canvas_index":0,"canvas_type":"ac_branch","connection":"AC Bus 8 -> AC Bus 1","domain":"AC","in_service":true,"index":0,"metrics":[{"label":"Pf","precision":4,"quantity":"p","unit":"MW","value":-1409.9999999996132},{"label":"Pt","precision":4,"quantity":"p","unit":"MW","value":1409.999999999613},{"label":"Qf","precision":4,"quantity":"q","unit":"MVar","value":1130.4309105708558},{"label":"Qt","precision":4,"quantity":"q","unit":"MVar","value":-704.9999999999452},{"label":"Loss","precision":4,"quantity":"p","unit":"MW","value":-2.2737367544323206e-13}],"name":"T_SOUTH_INVERTER","notes":[],"position":0,"recovery_class":"strong","recovery_reason":"original branch position map","status":"已求解","terminals":[{"bus":8,"domain":"AC","name":"from","p_mw":-1409.9999999996132,"q_mvar":1130.4309105708558,"sign_convention":"positive_injection_into_network","v_pu":0.7996765199602747},{"bus":1,"domain":"AC","name":"to","p_mw":1409.999999999613,"q_mvar":-704.9999999999452,"sign_convention":"positive_injection_into_network","v_pu":0.6975608516288939}],"type_label":"交流线路"},{"canonical_sources":[],"canvas_index":1,"canvas_type":"ac_branch","connection":"AC Bus 3 -> AC Bus 4","domain":"AC","in_service":true,"index":1,"metrics":[{"label":"Pf","precision":4,"quantity":"p","unit":"MW","value":-1049.999999999999},{"label":"Pt","precision":4,"quantity":"p","unit":"MW","value":1049.999999999999},{"label":"Qf","precision":4,"quantity":"q","unit":"MVar","value":48.84303325593091},{"label":"Qt","precision":4,"quantity":"q","unit":"MVar","value":11.163749290911529},{"label":"Loss","precision":4,"quantity":"p","unit":"MW","value":0.0}],"name":"T_NORTH_NORTHG1","notes":[],"position":1,"recovery_class":"strong","recovery_reason":"original branch position map","status":"已求解","terminals":[{"bus":3,"domain":"AC","name":"from","p_mw":-1049.999999999999,"q_mvar":48.84303325593091,"sign_convention":"positive_injection_into_network","v_pu":1.0510759996488843},{"bus":4,"domain":"AC","name":"to","p_mw":1049.999999999999,"q_mvar":11.163749290911529,"sign_convention":"positive_injection_into_network","v_pu":1.05}],"type_label":"交流线路"},{"canonical_sources":[],"canvas_index":2,"canvas_type":"ac_branch","connection":"AC Bus 3 -> AC Bus 5","domain":"AC","in_service":true,"index":2,"metrics":[{"label":"Pf","precision":4,"quantity":"p","unit":"MW","value":-1049.999999999999},{"label":"Pt","precision":4,"quantity":"p","unit":"MW","value":1049.999999999999},{"label":"Qf","precision":4,"quantity":"q","unit":"MVar","value":48.84303325593091},{"label":"Qt","precision":4,"quantity":"q","unit":"MVar","value":11.163749290911529},{"label":"Loss","precision":4,"quantity":"p","unit":"MW","value":0.0}],"name":"T_NORTH_NORTHG2","notes":[],"position":2,"recovery_class":"strong","recovery_reason":"original branch position map","status":"已求解","terminals":[{"bus":3,"domain":"AC","name":"from","p_mw":-1049.999999999999,"q_mvar":48.84303325593091,"sign_convention":"positive_injection_into_network","v_pu":1.0510759996488843},{"bus":5,"domain":"AC","name":"to","p_mw":1049.999999999999,"q_mvar":11.163749290911529,"sign_convention":"positive_injection_into_network","v_pu":1.05}],"type_label":"交流线路"},{"canonical_sources":[],"canvas_index":3,"canvas_type":"ac_branch","connection":"AC Bus 3 -> AC Bus 6","domain":"AC","in_service":true,"index":3,"metrics":[{"label":"Pf","precision":4,"quantity":"p","unit":"MW","value":-1049.999999999999},{"label":"Pt","precision":4,"quantity":"p","unit":"MW","value":1049.999999999999},{"label":"Qf","precision":4,"quantity":"q","unit":"MVar","value":48.84303325593091},{"label":"Qt","precision":4,"quantity":"q","unit":"MVar","value":11.163749290911529},{"label":"Loss","precision":4,"quantity":"p","unit":"MW","value":0.0}],"name":"T_NORTH_NORTHG3","notes":[],"position":3,"recovery_class":"strong","recovery_reason":"original branch position map","status":"已求解","terminals":[{"bus":3,"domain":"AC","name":"from","p_mw":-1049.999999999999,"q_mvar":48.84303325593091,"sign_convention":"positive_injection_into_network","v_pu":1.0510759996488843},{"bus":6,"domain":"AC","name":"to","p_mw":1049.999999999999,"q_mvar":11.163749290911529,"sign_convention":"positive_injection_into_network","v_pu":1.05}],"type_label":"交流线路"},{"canonical_sources":[],"canvas_index":4,"canvas_type":"ac_branch","connection":"AC Bus 3 -> AC Bus 2","domain":"AC","in_service":true,"index":4,"metrics":[{"label":"Pf","precision":4,"quantity":"p","unit":"MW","value":1500.0000000000007},{"label":"Pt","precision":4,"quantity":"p","unit":"MW","value":-1500.0000000000005},{"label":"Qf","precision":4,"quantity":"q","unit":"MVar","value":994.1775806531429},{"label":"Qt","precision":4,"quantity":"q","unit":"MVar","value":-750.0000000000002},{"label":"Loss","precision":4,"quantity":"p","unit":"MW","value":2.2737367544323206e-13}],"name":"T_NORTH_RECTFIER","notes":[],"position":4,"recovery_class":"strong","recovery_reason":"original branch position map","status":"已求解","terminals":[{"bus":3,"domain":"AC","name":"from","p_mw":1500.0000000000007,"q_mvar":994.1775806531429,"sign_convention":"positive_injection_into_network","v_pu":1.0510759996488843},{"bus":2,"domain":"AC","name":"to","p_mw":-1500.0000000000005,"q_mvar":-750.0000000000002,"sign_convention":"positive_injection_into_network","v_pu":0.9795257855562021}],"type_label":"交流线路"},{"canonical_sources":[],"canvas_index":5,"canvas_type":"ac_branch","connection":"AC Bus 3 -> AC Bus 10","domain":"AC","in_service":true,"index":5,"metrics":[{"label":"Pf","precision":4,"quantity":"p","unit":"MW","value":1100.0000000000005},{"label":"Pt","precision":4,"quantity":"p","unit":"MW","value":-1066.729118657941},{"label":"Qf","precision":4,"quantity":"q","unit":"MVar","value":-318.566817465463},{"label":"Qt","precision":4,"quantity":"q","unit":"MVar","value":-216.85628644691275},{"label":"Loss","precision":4,"quantity":"p","unit":"MW","value":33.27088134205951}],"name":"L_NORTH_STATIONN_1","notes":[],"position":5,"recovery_class":"strong","recovery_reason":"original branch position map","status":"已求解","terminals":[{"bus":3,"domain":"AC","name":"from","p_mw":1100.0000000000005,"q_mvar":-318.566817465463,"sign_convention":"positive_injection_into_network","v_pu":1.0510759996488843},{"bus":10,"domain":"AC","name":"to","p_mw":-1066.729118657941,"q_mvar":-216.85628644691275,"sign_convention":"positive_injection_into_network","v_pu":1.0322640341959621}],"type_label":"交流线路"},{"canonical_sources":[],"canvas_index":6,"canvas_type":"ac_branch","connection":"AC Bus 3 -> AC Bus 10","domain":"AC","in_service":true,"index":6,"metrics":[{"label":"Pf","precision":4,"quantity":"p","unit":"MW","value":550.0000000000002},{"label":"Pt","precision":4,"quantity":"p","unit":"MW","value":-533.3645593289705},{"label":"Qf","precision":4,"quantity":"q","unit":"MVar","value":-159.2834087327315},{"label":"Qt","precision":4,"quantity":"q","unit":"MVar","value":-108.42814322345637},{"label":"Loss","precision":4,"quantity":"p","unit":"MW","value":16.635440671029755}],"name":"L_NORTH_STATIONN_2","notes":[],"position":6,"recovery_class":"strong","recovery_reason":"original branch position map","status":"已求解","terminals":[{"bus":3,"domain":"AC","name":"from","p_mw":550.0000000000002,"q_mvar":-159.2834087327315,"sign_convention":"positive_injection_into_network","v_pu":1.0510759996488843},{"bus":10,"domain":"AC","name":"to","p_mw":-533.3645593289705,"q_mvar":-108.42814322345637,"sign_convention":"positive_injection_into_network","v_pu":1.0322640341959621}],"type_label":"交流线路"},{"canonical_sources":[],"canvas_index":7,"canvas_type":"ac_branch","connection":"AC Bus 7 -> AC Bus 10","domain":"AC","in_service":true,"index":7,"metrics":[{"label":"Pf","precision":4,"quantity":"p","unit":"MW","value":1073.9447608139326},{"label":"Pt","precision":4,"quantity":"p","unit":"MW","value":-1073.9447608139326},{"label":"Qf","precision":4,"quantity":"q","unit":"MVar","value":486.85953255371663},{"label":"Qt","precision":4,"quantity":"q","unit":"MVar","value":-436.414560083218},{"label":"Loss","precision":4,"quantity":"p","unit":"MW","value":0.0}],"name":"T_SLACK_STATIONN","notes":[],"position":7,"recovery_class":"strong","recovery_reason":"original branch position map","status":"已求解","terminals":[{"bus":7,"domain":"AC","name":"from","p_mw":1073.9447608139326,"q_mvar":486.85953255371663,"sign_convention":"positive_injection_into_network","v_pu":1.05},{"bus":10,"domain":"AC","name":"to","p_mw":-1073.9447608139326,"q_mvar":-436.414560083218,"sign_convention":"positive_injection_into_network","v_pu":1.0322640341959621}],"type_label":"交流线路"},{"canonical_sources":[],"canvas_index":8,"canvas_type":"ac_branch","connection":"AC Bus 8 -> AC Bus 9","domain":"AC","in_service":true,"index":8,"metrics":[{"label":"Pf","precision":4,"quantity":"p","unit":"MW","value":-1999.9999999999363},{"label":"Pt","precision":4,"quantity":"p","unit":"MW","value":1999.9999999999363},{"label":"Qf","precision":4,"quantity":"q","unit":"MVar","value":-1412.4997853508469},{"label":"Qt","precision":4,"quantity":"q","unit":"MVar","value":1599.9999999999623},{"label":"Loss","precision":4,"quantity":"p","unit":"MW","value":0.0}],"name":"T_SOUTH_SOUTHG1","notes":[],"position":8,"recovery_class":"strong","recovery_reason":"original branch position map","status":"已求解","terminals":[{"bus":8,"domain":"AC","name":"from","p_mw":-1999.9999999999363,"q_mvar":-1412.4997853508469,"sign_convention":"positive_injection_into_network","v_pu":0.7996765199602747},{"bus":9,"domain":"AC","name":"to","p_mw":1999.9999999999363,"q_mvar":1599.9999999999623,"sign_convention":"positive_injection_into_network","v_pu":0.8365001687284898}],"type_label":"交流线路"},{"canonical_sources":[],"canvas_index":9,"canvas_type":"ac_branch","connection":"AC Bus 8 -> AC Bus 11","domain":"AC","in_service":true,"index":9,"metrics":[{"label":"Pf","precision":4,"quantity":"p","unit":"MW","value":704.9999999998923},{"label":"Pt","precision":4,"quantity":"p","unit":"MW","value":-681.1401730288408},{"label":"Qf","precision":4,"quantity":"q","unit":"MVar","value":43.63003933746249},{"label":"Qt","precision":4,"quantity":"q","unit":"MVar","value":-7.180791536192532},{"label":"Loss","precision":4,"quantity":"p","unit":"MW","value":23.859826971051575}],"name":"L_SOUTH_STATIONS_1","notes":[],"position":9,"recovery_class":"strong","recovery_reason":"original branch position map","status":"已求解","terminals":[{"bus":8,"domain":"AC","name":"from","p_mw":704.9999999998923,"q_mvar":43.63003933746249,"sign_convention":"positive_injection_into_network","v_pu":0.7996765199602747},{"bus":11,"domain":"AC","name":"to","p_mw":-681.1401730288408,"q_mvar":-7.180791536192532,"sign_convention":"positive_injection_into_network","v_pu":0.7659504662933279}],"type_label":"交流线路"},{"canonical_sources":[],"canvas_index":10,"canvas_type":"ac_branch","connection":"AC Bus 8 -> AC Bus 11","domain":"AC","in_service":true,"index":10,"metrics":[{"label":"Pf","precision":4,"quantity":"p","unit":"MW","value":704.9999999998923},{"label":"Pt","precision":4,"quantity":"p","unit":"MW","value":-681.1401730288408},{"label":"Qf","precision":4,"quantity":"q","unit":"MVar","value":43.63003933746249},{"label":"Qt","precision":4,"quantity":"q","unit":"MVar","value":-7.180791536192532},{"label":"Loss","precision":4,"quantity":"p","unit":"MW","value":23.859826971051575}],"name":"L_SOUTH_STATIONS_2","notes":[],"position":10,"recovery_class":"strong","recovery_reason":"original branch position map","status":"已求解","terminals":[{"bus":8,"domain":"AC","name":"from","p_mw":704.9999999998923,"q_mvar":43.63003933746249,"sign_convention":"positive_injection_into_network","v_pu":0.7996765199602747},{"bus":11,"domain":"AC","name":"to","p_mw":-681.1401730288408,"q_mvar":-7.180791536192532,"sign_convention":"positive_injection_into_network","v_pu":0.7659504662933279}],"type_label":"交流线路"},{"canonical_sources":[],"canvas_index":11,"canvas_type":"ac_branch","connection":"AC Bus 10 -> AC Bus 11","domain":"AC","in_service":true,"index":11,"metrics":[{"label":"Pf","precision":4,"quantity":"p","unit":"MW","value":337.0192194004451},{"label":"Pt","precision":4,"quantity":"p","unit":"MW","value":-318.85982697106357},{"label":"Qf","precision":4,"quantity":"q","unit":"MVar","value":30.84949487682006},{"label":"Qt","precision":4,"quantity":"q","unit":"MVar","value":-510.1552318268004},{"label":"Loss","precision":4,"quantity":"p","unit":"MW","value":18.159392429381512}],"name":"L_STATIONN_STATIONS_1","notes":[],"position":11,"recovery_class":"strong","recovery_reason":"original branch position map","status":"已求解","terminals":[{"bus":10,"domain":"AC","name":"from","p_mw":337.0192194004451,"q_mvar":30.84949487682006,"sign_convention":"positive_injection_into_network","v_pu":1.0322640341959621},{"bus":11,"domain":"AC","name":"to","p_mw":-318.85982697106357,"q_mvar":-510.1552318268004,"sign_convention":"positive_injection_into_network","v_pu":0.7659504662933279}],"type_label":"交流线路"},{"canonical_sources":[],"canvas_index":12,"canvas_type":"ac_branch","connection":"AC Bus 10 -> AC Bus 11","domain":"AC","in_service":true,"index":12,"metrics":[{"label":"Pf","precision":4,"quantity":"p","unit":"MW","value":337.0192194004451},{"label":"Pt","precision":4,"quantity":"p","unit":"MW","value":-318.85982697106357},{"label":"Qf","precision":4,"quantity":"q","unit":"MVar","value":30.84949487682006},{"label":"Qt","precision":4,"quantity":"q","unit":"MVar","value":-510.1552318268004},{"label":"Loss","precision":4,"quantity":"p","unit":"MW","value":18.159392429381512}],"name":"L_STATIONN_STATIONS_2","notes":[],"position":12,"recovery_class":"strong","recovery_reason":"original branch position map","status":"已求解","terminals":[{"bus":10,"domain":"AC","name":"from","p_mw":337.0192194004451,"q_mvar":30.84949487682006,"sign_convention":"positive_injection_into_network","v_pu":1.0322640341959621},{"bus":11,"domain":"AC","name":"to","p_mw":-318.85982697106357,"q_mvar":-510.1552318268004,"sign_convention":"positive_injection_into_network","v_pu":0.7659504662933279}],"type_label":"交流线路"},{"canonical_sources":[],"canvas_index":0,"canvas_type":"generator","connection":"AC Bus 4","domain":"AC","in_service":true,"index":0,"metrics":[{"label":"Pg","precision":4,"quantity":"p","unit":"MW","value":1050.0},{"label":"Qg","precision":4,"quantity":"q","unit":"MVar","value":11.163749290911529},{"label":"Vg","precision":4,"quantity":"scalar","unit":"pu","value":1.05},{"label":"Slack","quantity":"text","value":"否"}],"name":"NORTHG1","notes":[],"position":0,"recovery_class":"strong","recovery_reason":"stable generator identity","status":"已求解","terminals":[{"bus":4,"domain":"AC","name":"ac","p_mw":1050.0,"q_mvar":0.0,"sign_convention":"positive_injection_into_network","v_pu":1.05}],"type_label":"发电机"},{"canonical_sources":[],"canvas_index":1,"canvas_type":"generator","connection":"AC Bus 5","domain":"AC","in_service":true,"index":1,"metrics":[{"label":"Pg","precision":4,"quantity":"p","unit":"MW","value":1050.0},{"label":"Qg","precision":4,"quantity":"q","unit":"MVar","value":11.163749290911529},{"label":"Vg","precision":4,"quantity":"scalar","unit":"pu","value":1.05},{"label":"Slack","quantity":"text","value":"否"}],"name":"NORTHG2","notes":[],"position":1,"recovery_class":"strong","recovery_reason":"stable generator identity","status":"已求解","terminals":[{"bus":5,"domain":"AC","name":"ac","p_mw":1050.0,"q_mvar":0.0,"sign_convention":"positive_injection_into_network","v_pu":1.05}],"type_label":"发电机"},{"canonical_sources":[],"canvas_index":2,"canvas_type":"generator","connection":"AC Bus 6","domain":"AC","in_service":true,"index":2,"metrics":[{"label":"Pg","precision":4,"quantity":"p","unit":"MW","value":1050.0},{"label":"Qg","precision":4,"quantity":"q","unit":"MVar","value":11.163749290911529},{"label":"Vg","precision":4,"quantity":"scalar","unit":"pu","value":1.05},{"label":"Slack","quantity":"text","value":"否"}],"name":"NORTHG3","notes":[],"position":2,"recovery_class":"strong","recovery_reason":"stable generator identity","status":"已求解","terminals":[{"bus":6,"domain":"AC","name":"ac","p_mw":1050.0,"q_mvar":0.0,"sign_convention":"positive_injection_into_network","v_pu":1.05}],"type_label":"发电机"},{"canonical_sources":[],"canvas_index":3,"canvas_type":"generator","connection":"AC Bus 7","domain":"AC","in_service":true,"index":3,"metrics":[{"label":"Pg","precision":4,"quantity":"p","unit":"MW","value":1073.9447608139326},{"label":"Qg","precision":4,"quantity":"q","unit":"MVar","value":486.85953255371663},{"label":"Vg","precision":4,"quantity":"scalar","unit":"pu","value":1.05},{"label":"Slack","quantity":"text","value":"是"}],"name":"SLACK","notes":[],"position":3,"recovery_class":"strong","recovery_reason":"stable generator identity","status":"已求解","terminals":[{"bus":7,"domain":"AC","name":"ac","p_mw":1054.0,"q_mvar":0.0,"sign_convention":"positive_injection_into_network","v_pu":1.05}],"type_label":"发电机"},{"canonical_sources":[],"canvas_index":4,"canvas_type":"generator","connection":"AC Bus 9","domain":"AC","in_service":true,"index":4,"metrics":[{"label":"Pg","precision":4,"quantity":"p","unit":"MW","value":2000.0},{"label":"Qg","precision":4,"quantity":"q","unit":"MVar","value":1599.9999999999623},{"label":"Vg","precision":4,"quantity":"scalar","unit":"pu","value":1.07},{"label":"Slack","quantity":"text","value":"否"}],"name":"SOUTHG1","notes":[],"position":4,"recovery_class":"strong","recovery_reason":"stable generator identity","status":"已求解","terminals":[{"bus":9,"domain":"AC","name":"ac","p_mw":2000.0,"q_mvar":0.0,"sign_convention":"positive_injection_into_network","v_pu":0.8365001687284898}],"type_label":"发电机"},{"canonical_sources":[],"canvas_index":0,"canvas_type":"load","connection":"AC Bus 8","domain":"AC","in_service":true,"index":0,"metrics":[{"label":"P消耗","precision":4,"quantity":"p","unit":"MW","value":2000.0},{"label":"Q消耗","precision":4,"quantity":"q","unit":"MVar","value":700.0}],"name":"SOUTH","notes":[],"position":0,"recovery_class":"audit_only","recovery_reason":"rich identity is total; solved observable is not yet attached","status":"已求解","terminals":[],"type_label":"负荷"},{"canonical_sources":[],"canvas_index":1,"canvas_type":"load","connection":"AC Bus 10","domain":"AC","in_service":true,"index":1,"metrics":[{"label":"P消耗","precision":4,"quantity":"p","unit":"MW","value":2000.0},{"label":"Q消耗","precision":4,"quantity":"q","unit":"MVar","value":700.0}],"name":"STATIONN","notes":[],"position":1,"recovery_class":"audit_only","recovery_reason":"rich identity is total; solved observable is not yet attached","status":"已求解","terminals":[],"type_label":"负荷"},{"canonical_sources":[],"canvas_index":2,"canvas_type":"load","connection":"AC Bus 11","domain":"AC","in_service":true,"index":2,"metrics":[{"label":"P消耗","precision":4,"quantity":"p","unit":"MW","value":2000.0},{"label":"Q消耗","precision":4,"quantity":"q","unit":"MVar","value":800.0}],"name":"STATIONS","notes":[],"position":2,"recovery_class":"audit_only","recovery_reason":"rich identity is total; solved observable is not yet attached","status":"已求解","terminals":[],"type_label":"负荷"},{"canonical_sources":[],"canvas_index":0,"canvas_type":"shunt","connection":"AC Bus 3","domain":"AC","in_service":true,"index":0,"metrics":[{"label":"Gs","precision":4,"quantity":"p","unit":"MW","value":0.0},{"label":"Bs","precision":4,"quantity":"q","unit":"MVar","value":600.0},{"label":"投切","quantity":"text","value":"固定"}],"name":"NORTH","notes":[],"position":0,"recovery_class":"audit_only","recovery_reason":"rich identity is total; solved observable is not yet attached","status":"已求解","terminals":[],"type_label":"并联补偿"},{"canonical_sources":[],"canvas_index":1,"canvas_type":"shunt","connection":"AC Bus 8","domain":"AC","in_service":true,"index":1,"metrics":[{"label":"Gs","precision":4,"quantity":"p","unit":"MW","value":0.0},{"label":"Bs","precision":4,"quantity":"q","unit":"MVar","value":790.0},{"label":"投切","quantity":"text","value":"固定"}],"name":"SOUTH","notes":[],"position":1,"recovery_class":"audit_only","recovery_reason":"rich identity is total; solved observable is not yet attached","status":"已求解","terminals":[],"type_label":"并联补偿"},{"canonical_sources":[],"canvas_index":2,"canvas_type":"shunt","connection":"AC Bus 11","domain":"AC","in_service":true,"index":2,"metrics":[{"label":"Gs","precision":4,"quantity":"p","unit":"MW","value":0.0},{"label":"Bs","precision":4,"quantity":"q","unit":"MVar","value":-400.0},{"label":"投切","quantity":"text","value":"固定"}],"name":"STATIONS","notes":[],"position":2,"recovery_class":"audit_only","recovery_reason":"rich identity is total; solved observable is not yet attached","status":"已求解","terminals":[],"type_label":"并联补偿"},{"canonical_sources":[],"canvas_index":0,"canvas_type":"dc_branch","connection":"DC Bus 2 -> DC Bus 1","domain":"DC","in_service":true,"index":0,"metrics":[{"label":"Pf","precision":4,"quantity":"p","unit":"MW","value":1499.9999972237101},{"label":"Pt","precision":4,"quantity":"p","unit":"MW","value":-1409.9999971687018},{"label":"Loss","precision":4,"quantity":"p","unit":"MW","value":90.00000005500829},{"label":"Loading","precision":1,"quantity":"scalar","unit":"%","value":99.99999981491402}],"name":"LD_RECTFIER_INVERTER","notes":[],"position":0,"recovery_class":"strong","recovery_reason":"DC conductance terminal equation","status":"已求解","terminals":[{"bus":2,"domain":"DC","name":"from","p_mw":1499.9999972237101,"q_mvar":null,"sign_convention":"positive_injection_into_network","v_pu":0.9999999978435392},{"bus":1,"domain":"DC","name":"to","p_mw":-1409.9999971687018,"q_mvar":null,"sign_convention":"positive_injection_into_network","v_pu":0.9399999978252032}],"type_label":"直流线路"},{"canonical_sources":[],"canvas_index":0,"canvas_type":"vsc_converter","connection":"AC Bus 2 <-> DC Bus 2","domain":"ACDC","in_service":true,"index":0,"metrics":[{"label":"模式","quantity":"text","value":"PQ"},{"label":"Pac","precision":4,"quantity":"p","unit":"MW","value":-1500.0},{"label":"Qac","precision":4,"quantity":"q","unit":"MVar","value":-750.0},{"label":"Pdc","precision":4,"quantity":"p","unit":"MW","value":1500.0},{"label":"Loss","precision":4,"quantity":"p","unit":"MW","value":-0.0}],"name":"LCC_RECTFIER","notes":[],"position":0,"recovery_class":"strong","recovery_reason":"VSC identity and ordered AC/DC terminals","status":"已求解","terminals":[{"bus":2,"domain":"AC","name":"ac","p_mw":-1500.0,"q_mvar":-750.0,"sign_convention":"positive_injection_into_network","v_pu":0.9795257855562021},{"bus":2,"domain":"DC","name":"dc","p_mw":1500.0,"q_mvar":null,"sign_convention":"positive_injection_into_network","v_pu":0.9999999978435392}],"type_label":"AC/DC变换器"},{"canonical_sources":[],"canvas_index":1,"canvas_type":"vsc_converter","connection":"AC Bus 1 <-> DC Bus 1","domain":"ACDC","in_service":true,"index":1,"metrics":[{"label":"模式","quantity":"text","value":"VDC_Q"},{"label":"有功语义","quantity":"text","value":"构网释放(P自由)"},{"label":"P调度(非约束)","precision":4,"quantity":"p","unit":"MW","value":1410.0},{"label":"P初值","precision":4,"quantity":"p","unit":"MW","value":1410.0},{"label":"Pac","precision":4,"quantity":"p","unit":"MW","value":1410.0},{"label":"Qac","precision":4,"quantity":"q","unit":"MVar","value":-705.0},{"label":"Pdc","precision":4,"quantity":"p","unit":"MW","value":-1410.0},{"label":"Loss","precision":4,"quantity":"p","unit":"MW","value":-0.0}],"name":"LCC_INVERTER","notes":["VDC类模式下P调度不是AC侧有功等式约束；潮流AC侧采用求解得到的Pac，DC侧采用求解得到的Pdc并计入损耗"],"position":1,"recovery_class":"strong","recovery_reason":"VSC identity and ordered AC/DC terminals","status":"已求解","terminals":[{"bus":1,"domain":"AC","name":"ac","p_mw":1410.0,"q_mvar":-705.0,"sign_convention":"positive_injection_into_network","v_pu":0.6975608516288939},{"bus":1,"domain":"DC","name":"dc","p_mw":-1410.0,"q_mvar":null,"sign_convention":"positive_injection_into_network","v_pu":0.9399999978252032}],"type_label":"AC/DC变换器"}],"converged":true,"converter_coordination":{"blocking_count":0,"dc_islands":[{"dc_buses":[1,2],"declared_v_buses":[],"droop_sources":1,"fixed_power_devices":1,"fixed_power_mw":1500.0,"flexible_down_mw":2000000000.0,"flexible_up_mw":2000000000.0,"hard_vdc_sources":0,"island_index":0,"voltage_sources":[{"bus":1,"component_index":1,"component_type":"vsc_converter","droop":true,"has_v_set":true,"v_set_pu":0.94}]}],"enabled":true,"error_count":0,"fatal_count":0,"feasible":true,"issues":[{"component_index":1,"component_type":"vsc_converter","island_index":0,"message":"VSC converter 1 is in VDC_Q mode; p_set_mw=1410.000000 MW is treated only as a schedule/initial value because DC voltage control must release AC active power. Set p_schedule_mw / p_initial_mw to declare this explicitly.","rule_id":"ACDC-03","severity":"warning"}],"warning_count":1},"dc_branch_flows":[{"from_bus":2,"index":0,"loading_pct":99.99999981491402,"loss_mw":90.00000005500829,"pf_mw":1499.9999972237101,"pt_mw":-1409.9999971687018,"rate_mva":1500.0,"to_bus":1}],"dc_circuit_breaker_flows":[],"dc_storage_results":[],"dcdc_transfers":[],"execution_time_sec":0.002062,"geo_ac_branches":[{"from":8,"from_lat":0.0,"from_lon":0.0,"index":0,"loading_pct":0.0,"loss_mw":-2.2737367544323206e-13,"name":"T_SOUTH_INVERTER","pf_mw":-1409.9999999996132,"pt_mw":1409.999999999613,"qf_mvar":1130.4309105708558,"qt_mvar":-704.9999999999452,"rate_mva":0.0,"to":1,"to_lat":0.0,"to_lon":0.0},{"from":3,"from_lat":0.0,"from_lon":0.0,"index":1,"loading_pct":0.0,"loss_mw":0.0,"name":"T_NORTH_NORTHG1","pf_mw":-1049.999999999999,"pt_mw":1049.999999999999,"qf_mvar":48.84303325593091,"qt_mvar":11.163749290911529,"rate_mva":0.0,"to":4,"to_lat":0.0,"to_lon":0.0},{"from":3,"from_lat":0.0,"from_lon":0.0,"index":2,"loading_pct":0.0,"loss_mw":0.0,"name":"T_NORTH_NORTHG2","pf_mw":-1049.999999999999,"pt_mw":1049.999999999999,"qf_mvar":48.84303325593091,"qt_mvar":11.163749290911529,"rate_mva":0.0,"to":5,"to_lat":0.0,"to_lon":0.0},{"from":3,"from_lat":0.0,"from_lon":0.0,"index":3,"loading_pct":0.0,"loss_mw":0.0,"name":"T_NORTH_NORTHG3","pf_mw":-1049.999999999999,"pt_mw":1049.999999999999,"qf_mvar":48.84303325593091,"qt_mvar":11.163749290911529,"rate_mva":0.0,"to":6,"to_lat":0.0,"to_lon":0.0},{"from":3,"from_lat":0.0,"from_lon":0.0,"index":4,"loading_pct":0.0,"loss_mw":2.2737367544323206e-13,"name":"T_NORTH_RECTFIER","pf_mw":1500.0000000000007,"pt_mw":-1500.0000000000005,"qf_mvar":994.1775806531429,"qt_mvar":-750.0000000000002,"rate_mva":0.0,"to":2,"to_lat":0.0,"to_lon":0.0},{"from":3,"from_lat":0.0,"from_lon":0.0,"index":5,"loading_pct":0.0,"loss_mw":33.27088134205951,"name":"L_NORTH_STATIONN_1","pf_mw":1100.0000000000005,"pt_mw":-1066.729118657941,"qf_mvar":-318.566817465463,"qt_mvar":-216.85628644691275,"rate_mva":0.0,"to":10,"to_lat":0.0,"to_lon":0.0},{"from":3,"from_lat":0.0,"from_lon":0.0,"index":6,"loading_pct":0.0,"loss_mw":16.635440671029755,"name":"L_NORTH_STATIONN_2","pf_mw":550.0000000000002,"pt_mw":-533.3645593289705,"qf_mvar":-159.2834087327315,"qt_mvar":-108.42814322345637,"rate_mva":0.0,"to":10,"to_lat":0.0,"to_lon":0.0},{"from":7,"from_lat":0.0,"from_lon":0.0,"index":7,"loading_pct":0.0,"loss_mw":0.0,"name":"T_SLACK_STATIONN","pf_mw":1073.9447608139326,"pt_mw":-1073.9447608139326,"qf_mvar":486.85953255371663,"qt_mvar":-436.414560083218,"rate_mva":0.0,"to":10,"to_lat":0.0,"to_lon":0.0},{"from":8,"from_lat":0.0,"from_lon":0.0,"index":8,"loading_pct":0.0,"loss_mw":0.0,"name":"T_SOUTH_SOUTHG1","pf_mw":-1999.9999999999363,"pt_mw":1999.9999999999363,"qf_mvar":-1412.4997853508469,"qt_mvar":1599.9999999999623,"rate_mva":0.0,"to":9,"to_lat":0.0,"to_lon":0.0},{"from":8,"from_lat":0.0,"from_lon":0.0,"index":9,"loading_pct":0.0,"loss_mw":23.859826971051575,"name":"L_SOUTH_STATIONS_1","pf_mw":704.9999999998923,"pt_mw":-681.1401730288408,"qf_mvar":43.63003933746249,"qt_mvar":-7.180791536192532,"rate_mva":0.0,"to":11,"to_lat":0.0,"to_lon":0.0},{"from":8,"from_lat":0.0,"from_lon":0.0,"index":10,"loading_pct":0.0,"loss_mw":23.859826971051575,"name":"L_SOUTH_STATIONS_2","pf_mw":704.9999999998923,"pt_mw":-681.1401730288408,"qf_mvar":43.63003933746249,"qt_mvar":-7.180791536192532,"rate_mva":0.0,"to":11,"to_lat":0.0,"to_lon":0.0},{"from":10,"from_lat":0.0,"from_lon":0.0,"index":11,"loading_pct":0.0,"loss_mw":18.159392429381512,"name":"L_STATIONN_STATIONS_1","pf_mw":337.0192194004451,"pt_mw":-318.85982697106357,"qf_mvar":30.84949487682006,"qt_mvar":-510.1552318268004,"rate_mva":0.0,"to":11,"to_lat":0.0,"to_lon":0.0},{"from":10,"from_lat":0.0,"from_lon":0.0,"index":12,"loading_pct":0.0,"loss_mw":18.159392429381512,"name":"L_STATIONN_STATIONS_2","pf_mw":337.0192194004451,"pt_mw":-318.85982697106357,"qf_mvar":30.84949487682006,"qt_mvar":-510.1552318268004,"rate_mva":0.0,"to":11,"to_lat":0.0,"to_lon":0.0}],"geo_buses":[{"area":1,"base_kv":217.0,"bus_type":"PQ","id":1,"lat":0.0,"lon":0.0,"name":"INVERTER","pd_mw":0.0,"pg_mw":0.0,"qd_mvar":0.0,"qg_mvar":0.0,"type":"AC","va_rad":0.17646637676990143,"vm_pu":0.6975608516288939,"zone":1},{"area":1,"base_kv":217.0,"bus_type":"PQ","id":2,"lat":0.0,"lon":0.0,"name":"RECTFIER","pd_mw":0.0,"pg_mw":0.0,"qd_mvar":0.0,"qg_mvar":0.0,"type":"AC","va_rad":0.14416232066659684,"vm_pu":0.9795257855562021,"zone":1},{"area":1,"base_kv":500.0,"bus_type":"PQ","id":3,"lat":0.0,"lon":0.0,"name":"NORTH","pd_mw":0.0,"pg_mw":0.0,"qd_mvar":0.0,"qg_mvar":0.0,"type":"AC","va_rad":0.26582522832703703,"vm_pu":1.0510759996488843,"zone":1},{"area":1,"base_kv":20.0,"bus_type":"PV","id":4,"lat":0.0,"lon":0.0,"name":"NORTHG1","pd_mw":0.0,"pg_mw":1050.0,"qd_mvar":0.0,"qg_mvar":11.163749290911529,"type":"AC","va_rad":0.3229406359070154,"vm_pu":1.05,"zone":1},{"area":1,"base_kv":20.0,"bus_type":"PV","id":5,"lat":0.0,"lon":0.0,"name":"NORTHG2","pd_mw":0.0,"pg_mw":1050.0,"qd_mvar":0.0,"qg_mvar":11.163749290911529,"type":"AC","va_rad":0.3229406359070154,"vm_pu":1.05,"zone":1},{"area":1,"base_kv":20.0,"bus_type":"PV","id":6,"lat":0.0,"lon":0.0,"name":"NORTHG3","pd_mw":0.0,"pg_mw":1050.0,"qd_mvar":0.0,"qg_mvar":11.163749290911529,"type":"AC","va_rad":0.3229406359070154,"vm_pu":1.05,"zone":1},{"area":1,"base_kv":20.0,"bus_type":"SLACK","id":7,"lat":0.0,"lon":0.0,"name":"SLACK","pd_mw":0.0,"pg_mw":1073.9447608139326,"qd_mvar":0.0,"qg_mvar":486.85953255371663,"type":"AC","va_rad":0.0,"vm_pu":1.05,"zone":1},{"area":1,"base_kv":500.0,"bus_type":"PQ","id":8,"lat":0.0,"lon":0.0,"name":"SOUTH","pd_mw":2000.0,"pg_mw":0.0,"qd_mvar":700.0,"qg_mvar":0.0,"type":"AC","va_rad":-0.03567732273886581,"vm_pu":0.7996765199602747,"zone":1},{"area":1,"base_kv":20.0,"bus_type":"PV","id":9,"lat":0.0,"lon":0.0,"name":"SOUTHG1","pd_mw":0.0,"pg_mw":2000.0,"qd_mvar":0.0,"qg_mvar":1599.9999999999623,"type":"AC","va_rad":0.02415540060773947,"vm_pu":0.8365001687284898,"zone":1},{"area":1,"base_kv":500.0,"bus_type":"PQ","id":10,"lat":0.0,"lon":0.0,"name":"STATIONN","pd_mw":2000.0,"pg_mw":0.0,"qd_mvar":700.0,"qg_mvar":0.0,"type":"AC","va_rad":-0.03964382993568189,"vm_pu":1.0322640341959621,"zone":1},{"area":1,"base_kv":500.0,"bus_type":"PQ","id":11,"lat":0.0,"lon":0.0,"name":"STATIONS","pd_mw":2000.0,"pg_mw":0.0,"qd_mvar":800.0,"qg_mvar":0.0,"type":"AC","va_rad":-0.26254883799192424,"vm_pu":0.7659504662933279,"zone":1},{"area":0,"base_kv":500.0,"bus_type":"DC_P","id":1,"lat":0.0,"lon":0.0,"name":"INVERTER","pd_mw":0.0,"type":"DC","vm_pu":0.9399999978252032,"zone":0},{"area":0,"base_kv":500.0,"bus_type":"DC_P","id":2,"lat":0.0,"lon":0.0,"name":"RECTFIER","pd_mw":0.0,"type":"DC","vm_pu":0.9999999978435392,"zone":0}],"geo_dc_branches":[{"from":2,"from_lat":0.0,"from_lon":0.0,"index":0,"loading_pct":99.99999981491402,"loss_mw":90.00000005500829,"name":"LD_RECTFIER_INVERTER","pf_mw":1499.9999972237101,"pt_mw":-1409.9999971687018,"rate_mva":1500.0,"to":1,"to_lat":0.0,"to_lon":0.0}],"geo_dcdc":[],"geo_er":[],"geo_gen":[{"bus":4,"canvas_index":0,"canvas_type":"gen","index":0,"is_slack":false,"name":"NORTHG1","pg_mw":1050.0,"pmax_mw":0.0,"pmin_mw":0.0,"position":0,"qg_mvar":11.163749290911529,"vg_pu":1.05},{"bus":5,"canvas_index":1,"canvas_type":"gen","index":1,"is_slack":false,"name":"NORTHG2","pg_mw":1050.0,"pmax_mw":0.0,"pmin_mw":0.0,"position":1,"qg_mvar":11.163749290911529,"vg_pu":1.05},{"bus":6,"canvas_index":2,"canvas_type":"gen","index":2,"is_slack":false,"name":"NORTHG3","pg_mw":1050.0,"pmax_mw":0.0,"pmin_mw":0.0,"position":2,"qg_mvar":11.163749290911529,"vg_pu":1.05},{"bus":7,"canvas_index":3,"canvas_type":"gen","index":3,"is_slack":true,"name":"SLACK","pg_mw":1073.9447608139326,"pmax_mw":0.0,"pmin_mw":0.0,"position":3,"qg_mvar":486.85953255371663,"vg_pu":1.05},{"bus":9,"canvas_index":4,"canvas_type":"gen","index":4,"is_slack":false,"name":"SOUTHG1","pg_mw":2000.0,"pmax_mw":0.0,"pmin_mw":0.0,"position":4,"qg_mvar":1599.9999999999623,"vg_pu":1.07}],"geo_trafo3w":[],"geo_vsc":[{"ac_lat":0.0,"ac_lon":0.0,"bus_ac":2,"bus_dc":2,"dc_lat":0.0,"dc_lon":0.0,"index":0,"loss_mw":-0.0,"p_ac_mw":-1500.0,"p_dc_mw":1500.0,"q_ac_mvar":-750.0},{"ac_lat":0.0,"ac_lon":0.0,"bus_ac":1,"bus_dc":1,"dc_lat":0.0,"dc_lon":0.0,"index":1,"loss_mw":-0.0,"p_ac_mw":1410.0,"p_dc_mw":-1410.0,"q_ac_mvar":-705.0}],"islands_detected":1,"iterations":21,"method":"ac_newton","method_actual":"hybrid_ac_dc_newton","notes":"","options_effective":{"ac_eval_threads":0,"converter_vdc_switch_high_pu":0.03,"converter_vdc_switch_low_pu":0.01,"enable_augmented_equations":false,"enable_auto_swing_selection":true,"enable_converter_coordination_check":true,"enable_converter_mode_switching":true,"enable_coupled_jacobian":false,"enable_iteration_log":false,"enable_pv_pq_conversion":true,"enable_rigid_vdc_former":false,"enable_semi_smooth_newton":false,"enable_solver_profiling":false,"fdpf_max_iter":1000,"globalization":"line_search","loss_model":"linear","max_delta_va_rad":1.5,"max_delta_vdc_pu":0.5,"max_delta_vm_pu":0.5,"max_iter":50,"max_line_search_steps":10,"max_regularization_steps":8,"mode_hysteresis_iters":2,"ptc_delta0":1.0,"ptc_growth":2.0,"pv_q_hysteresis_pu":0.01,"pv_recover_vm_tol_pu":0.01,"regularization_growth":10.0,"regularization_lambda0":1e-06,"robust_nonlinear":{"armijo_c":0.0001,"auto_enable_log_voltage_on_failure":false,"bad_condition_threshold":10000000000.0,"enable_activity_hysteresis":true,"enable_auto_fallback_scheduling":false,"enable_condition_monitor":true,"enable_homotopy":true,"enable_jacobian_row_col_equilibration":true,"enable_lm_trust_region_fallback":true,"enable_log_voltage":false,"enable_newton_krylov_fallback":false,"enable_nonmonotone_linesearch":true,"enable_ptc_ser":true,"enable_residual_scaling":true,"enable_schur_preconditioner":false,"enable_smooth_ncp":false,"enable_variable_scaling":true,"gmres_max_outer":10,"gmres_restart":30,"gmres_tol":1e-10,"homotopy_max_steps":30,"homotopy_step0":0.2,"homotopy_step_max":1.0,"homotopy_step_min":0.001,"line_search_beta":0.5,"lm_lambda0":0.0001,"lm_lambda_max":100000000.0,"lm_lambda_min":1e-12,"max_line_search_trials":12,"max_scale":1000000.0,"min_active_set_hold_iters":3,"min_branch_x_pu":1e-20,"min_scale":1e-06,"min_vm_pu":1e-08,"ncp_mu0":0.01,"ncp_mu_factor":0.1,"ncp_mu_factor_coarse":0.5,"ncp_mu_min":1e-12,"ncp_mu_phase_transition":0.1,"nk_condition_trigger":100000000.0,"nonmonotone_window":5,"ptc_dt0":0.1,"ptc_dt_max":1000000.0,"ptc_dt_min":0.0001,"ptc_gamma":0.7,"q_limit_hysteresis":0.0001,"tiny_pivot_threshold":1e-12,"trust_region_radius0":1.0,"trust_region_radius_max":100.0,"trust_region_radius_min":1e-06},"tol":1e-08,"trust_region_max":10.0,"trust_region_radius0":1.0,"verbose":false,"zip_pw":[1.0,0.0,0.0],"zip_qw":[1.0,0.0,0.0]},"power_balance_diagnostics":{"ac_terminal_export_p":{"1":1409.999999999613,"10":-1999.9999999999543,"11":-1999.9999999998086,"2":-1500.0000000000005,"3":4.092726157978177e-12,"4":1049.999999999999,"5":1049.999999999999,"6":1049.999999999999,"7":1073.9447608139326,"8":-1999.9999999997654,"9":1999.9999999999363},"ac_terminal_export_q":{"1":-704.9999999999452,"10":-699.9999999999471,"11":-1034.6720467259859,"2":-750.0000000000002,"3":662.8564542227411,"4":11.163749290911529,"5":11.163749290911529,"6":11.163749290911529,"7":486.85953255371663,"8":-194.8087961050661,"9":1599.9999999999623},"all_buses":[{"bus":1,"bus_type":"PQ","details":[{"label":"端口外送合计","p_mw":1409.999999999613,"q_mvar":-704.9999999999452},{"label":"求解净注入","p_mw":1410.0,"q_mvar":-705.0}],"domain":"AC","id":1,"isImplicit":false,"is_implicit":false,"kind":"AC","kw":-3.8698999560438097e-07,"mw":-3.8698999560438097e-10,"name":"INVERTER","net_injection_mvar":-705.0,"net_injection_mw":1410.0,"residual_kvar":5.4797055781818926e-08,"residual_kw":-3.8698999560438097e-07,"residual_mvar":5.4797055781818926e-11,"residual_mw":-3.8698999560438097e-10,"terminal_export_mvar":-704.9999999999452,"terminal_export_mw":1409.999999999613,"type":"PQ"},{"bus":2,"bus_type":"PQ","details":[{"label":"端口外送合计","p_mw":-1500.0000000000005,"q_mvar":-750.0000000000002},{"label":"求解净注入","p_mw":-1500.0,"q_mvar":-750.0}],"domain":"AC","id":2,"isImplicit":false,"is_implicit":false,"kind":"AC","kw":-4.547473508864641e-10,"mw":-4.547473508864641e-13,"name":"RECTFIER","net_injection_mvar":-750.0,"net_injection_mw":-1500.0,"residual_kvar":-2.2737367544323206e-10,"residual_kw":-4.547473508864641e-10,"residual_mvar":-2.2737367544323206e-13,"residual_mw":-4.547473508864641e-13,"terminal_export_mvar":-750.0000000000002,"terminal_export_mw":-1500.0000000000005,"type":"PQ"},{"bus":3,"bus_type":"PQ","details":[{"label":"端口外送合计","p_mw":4.092726157978177e-12,"q_mvar":662.8564542227411},{"label":"求解净注入","p_mw":0.0,"q_mvar":662.8564542227409}],"domain":"AC","id":3,"isImplicit":false,"is_implicit":false,"kind":"AC","kw":4.092726157978177e-09,"mw":4.092726157978177e-12,"name":"NORTH","net_injection_mvar":662.8564542227409,"net_injection_mw":0.0,"residual_kvar":2.2737367544323206e-10,"residual_kw":4.092726157978177e-09,"residual_mvar":2.2737367544323206e-13,"residual_mw":4.092726157978177e-12,"terminal_export_mvar":662.8564542227411,"terminal_export_mw":4.092726157978177e-12,"type":"PQ"},{"bus":4,"bus_type":"PV","details":[{"label":"端口外送合计","p_mw":1049.999999999999,"q_mvar":11.163749290911529},{"label":"求解净注入","p_mw":1050.0,"q_mvar":11.163749290911529}],"domain":"AC","id":4,"isImplicit":false,"is_implicit":false,"kind":"AC","kw":-9.094947017729282e-10,"mw":-9.094947017729282e-13,"name":"NORTHG1","net_injection_mvar":11.163749290911529,"net_injection_mw":1050.0,"residual_kvar":0.0,"residual_kw":-9.094947017729282e-10,"residual_mvar":0.0,"residual_mw":-9.094947017729282e-13,"terminal_export_mvar":11.163749290911529,"terminal_export_mw":1049.999999999999,"type":"PV"},{"bus":5,"bus_type":"PV","details":[{"label":"端口外送合计","p_mw":1049.999999999999,"q_mvar":11.163749290911529},{"label":"求解净注入","p_mw":1050.0,"q_mvar":11.163749290911529}],"domain":"AC","id":5,"isImplicit":false,"is_implicit":false,"kind":"AC","kw":-9.094947017729282e-10,"mw":-9.094947017729282e-13,"name":"NORTHG2","net_injection_mvar":11.163749290911529,"net_injection_mw":1050.0,"residual_kvar":0.0,"residual_kw":-9.094947017729282e-10,"residual_mvar":0.0,"residual_mw":-9.094947017729282e-13,"terminal_export_mvar":11.163749290911529,"terminal_export_mw":1049.999999999999,"type":"PV"},{"bus":6,"bus_type":"PV","details":[{"label":"端口外送合计","p_mw":1049.999999999999,"q_mvar":11.163749290911529},{"label":"求解净注入","p_mw":1050.0,"q_mvar":11.163749290911529}],"domain":"AC","id":6,"isImplicit":false,"is_implicit":false,"kind":"AC","kw":-9.094947017729282e-10,"mw":-9.094947017729282e-13,"name":"NORTHG3","net_injection_mvar":11.163749290911529,"net_injection_mw":1050.0,"residual_kvar":0.0,"residual_kw":-9.094947017729282e-10,"residual_mvar":0.0,"residual_mw":-9.094947017729282e-13,"terminal_export_mvar":11.163749290911529,"terminal_export_mw":1049.999999999999,"type":"PV"},{"bus":7,"bus_type":"SLACK","details":[{"label":"端口外送合计","p_mw":1073.9447608139326,"q_mvar":486.85953255371663},{"label":"求解净注入","p_mw":1073.9447608139326,"q_mvar":486.85953255371663}],"domain":"AC","id":7,"isImplicit":false,"is_implicit":false,"kind":"AC","kw":0.0,"mw":0.0,"name":"SLACK","net_injection_mvar":486.85953255371663,"net_injection_mw":1073.9447608139326,"residual_kvar":0.0,"residual_kw":0.0,"residual_mvar":0.0,"residual_mw":0.0,"terminal_export_mvar":486.85953255371663,"terminal_export_mw":1073.9447608139326,"type":"SLACK"},{"bus":8,"bus_type":"PQ","details":[{"label":"端口外送合计","p_mw":-1999.9999999997654,"q_mvar":-194.8087961050661},{"label":"求解净注入","p_mw":-2000.0,"q_mvar":-194.80879610513728}],"domain":"AC","id":8,"isImplicit":false,"is_implicit":false,"kind":"AC","kw":2.3464963305741549e-07,"mw":2.346496330574155e-10,"name":"SOUTH","net_injection_mvar":-194.80879610513728,"net_injection_mw":-2000.0,"residual_kvar":7.116796041373163e-08,"residual_kw":2.3464963305741549e-07,"residual_mvar":7.116796041373163e-11,"residual_mw":2.346496330574155e-10,"terminal_export_mvar":-194.8087961050661,"terminal_export_mw":-1999.9999999997654,"type":"PQ"},{"bus":9,"bus_type":"PV","details":[{"label":"端口外送合计","p_mw":1999.9999999999363,"q_mvar":1599.9999999999623},{"label":"求解净注入","p_mw":2000.0,"q_mvar":1599.9999999999623}],"domain":"AC","id":9,"isImplicit":false,"is_implicit":false,"kind":"AC","kw":-6.366462912410498e-08,"mw":-6.366462912410498e-11,"name":"SOUTHG1","net_injection_mvar":1599.9999999999623,"net_injection_mw":2000.0,"residual_kvar":0.0,"residual_kw":-6.366462912410498e-08,"residual_mvar":0.0,"residual_mw":-6.366462912410498e-11,"terminal_export_mvar":1599.9999999999623,"terminal_export_mw":1999.9999999999363,"type":"PV"},{"bus":10,"bus_type":"PQ","details":[{"label":"端口外送合计","p_mw":-1999.9999999999543,"q_mvar":-699.9999999999471},{"label":"求解净注入","p_mw":-2000.0,"q_mvar":-700.0}],"domain":"AC","id":10,"isImplicit":false,"is_implicit":false,"kind":"AC","kw":4.5702108764089644e-08,"mw":4.5702108764089644e-11,"name":"STATIONN","net_injection_mvar":-700.0,"net_injection_mw":-2000.0,"residual_kvar":5.2864379540551454e-08,"residual_kw":4.5702108764089644e-08,"residual_mvar":5.2864379540551454e-11,"residual_mw":4.5702108764089644e-11,"terminal_export_mvar":-699.9999999999471,"terminal_export_mw":-1999.9999999999543,"type":"PQ"},{"bus":11,"bus_type":"PQ","details":[{"label":"端口外送合计","p_mw":-1999.9999999998086,"q_mvar":-1034.6720467259859},{"label":"求解净注入","p_mw":-2000.0,"q_mvar":-1034.6720467259865}],"domain":"AC","id":11,"isImplicit":false,"is_implicit":false,"kind":"AC","kw":1.914486347232014e-07,"mw":1.914486347232014e-10,"name":"STATIONS","net_injection_mvar":-1034.6720467259865,"net_injection_mw":-2000.0,"residual_kvar":6.821210263296962e-10,"residual_kw":1.914486347232014e-07,"residual_mvar":6.821210263296962e-13,"residual_mw":1.914486347232014e-10,"terminal_export_mvar":-1034.6720467259859,"terminal_export_mw":-1999.9999999998086,"type":"PQ"},{"bus":1,"bus_type":"DC_P","details":[{"label":"端口外送合计","p_mw":-1409.9999971687018,"q_mvar":0.0},{"label":"求解净注入","p_mw":-1410.0,"q_mvar":0.0}],"domain":"DC","id":1,"isImplicit":false,"is_implicit":false,"kind":"DC","kw":0.002831298161254381,"mw":2.831298161254381e-06,"name":"INVERTER","net_injection_mvar":0.0,"net_injection_mw":-1410.0,"residual_kvar":0.0,"residual_kw":0.002831298161254381,"residual_mvar":0.0,"residual_mw":2.831298161254381e-06,"terminal_export_mvar":0.0,"terminal_export_mw":-1409.9999971687018,"type":"DC_P"},{"bus":2,"bus_type":"DC_P","details":[{"label":"端口外送合计","p_mw":1499.9999972237101,"q_mvar":0.0},{"label":"求解净注入","p_mw":1500.0,"q_mvar":0.0}],"domain":"DC","id":2,"isImplicit":true,"is_implicit":true,"kind":"DC","kw":-0.002776289875328075,"mw":-2.776289875328075e-06,"name":"RECTFIER","net_injection_mvar":0.0,"net_injection_mw":1500.0,"residual_kvar":0.0,"residual_kw":-0.002776289875328075,"residual_mvar":0.0,"residual_mw":-2.776289875328075e-06,"terminal_export_mvar":0.0,"terminal_export_mw":1499.9999972237101,"type":"DC_P"}],"basis":"canonical_projection_with_rich_terminal_attribution","dc_terminal_export_p":{"1":-1409.9999971687018,"2":1499.9999972237101},"ordinary":[],"ordinary_bad_count":0,"source_count":1,"sources":[{"bus":7,"bus_type":"SLACK","details":[{"label":"AC平衡源","p_mw":1073.9447608139326,"q_mvar":486.85953255371663}],"domain":"AC","id":7,"isImplicit":false,"is_implicit":false,"kind":"AC","kw":1073944.7608139326,"mw":1073.9447608139326,"name":"SLACK","source_kvar":486859.5325537166,"source_kw":1073944.7608139326,"source_mvar":486.85953255371663,"source_mw":1073.9447608139326,"type":"SLACK"}],"tolerance_kw":1.0},"promoted_vsc_indices":[],"residual":2.8312996391832712e-08,"schema":"power_flow_result_v1","solvable_islands":1,"va":[0.17646637676990143,0.14416232066659684,0.26582522832703703,0.3229406359070154,0.3229406359070154,0.3229406359070154,0.0,-0.03567732273886581,0.02415540060773947,-0.03964382993568189,-0.26254883799192424],"vdc":[0.9399999978252032,0.9999999978435392],"vm":[0.6975608516288939,0.9795257855562021,1.0510759996488843,1.05,1.05,1.05,1.05,0.7996765199602747,0.8365001687284898,1.0322640341959621,0.7659504662933279],"voltage_qualification":{"ac_qualified_samples":7,"ac_rate_pct":63.63636363636363,"ac_total_samples":11,"basis":"converged_snapshot","dc_qualified_samples":2,"dc_rate_pct":100.0,"dc_total_samples":2,"qualified_samples":9,"rate_pct":69.23076923076923,"total_samples":13},"vsc_transfers":[{"bus_ac":2,"bus_dc":2,"index":0,"loss_mw":-0.0,"p_ac_mw":-1500.0,"p_dc_mw":1500.0,"q_ac_mvar":-750.0},{"bus_ac":1,"bus_dc":1,"index":1,"loss_mw":-0.0,"p_ac_mw":1410.0,"p_dc_mw":-1410.0,"q_ac_mvar":-705.0}],"warnings":["[ACDC-03] VSC converter 1 is in VDC_Q mode; p_set_mw=1410.000000 MW is treated only as a schedule/initial value because DC voltage control must release AC active power. Set p_schedule_mw / p_initial_mw to declare this explicitly."]}